nrt/data/EMT/EmtCompositeSmib/smib_dynawo.xiidm
<?xml version="1.0" encoding="UTF-8"?>
<iidm:network xmlns:iidm="http://www.powsybl.org/schema/iidm/1_5" id="emtsmib" caseDate="2024-01-01T00:00:00.000Z" forecastDistance="0" sourceFormat="manual">
    <iidm:substation id="S1" country="FR">
        <iidm:voltageLevel id="VL_GEN" nominalV="1.0" lowVoltageLimit="0.5" highVoltageLimit="1.5" topologyKind="BUS_BREAKER">
            <iidm:busBreakerTopology>
                <iidm:bus id="GEN_BUS" v="0.92" angle="12.433850130739353"/>
            </iidm:busBreakerTopology>
            <iidm:generator id="SM" energySource="OTHER" minP="-100.0" maxP="100.0" voltageRegulatorOn="true" targetP="60.0" targetV="0.92" bus="GEN_BUS" connectableBus="GEN_BUS" p="-60.0" q="-8.606816421886911">
                <iidm:minMaxReactiveLimits minQ="-100.0" maxQ="100.0"/>
            </iidm:generator>
        </iidm:voltageLevel>
        <iidm:voltageLevel id="VL_HV" nominalV="1.0" lowVoltageLimit="0.5" highVoltageLimit="1.5" topologyKind="BUS_BREAKER">
            <iidm:busBreakerTopology>
                <iidm:bus id="HV_BUS" v="0.9129771049840923" angle="8.337508799355973"/>
            </iidm:busBreakerTopology>
        </iidm:voltageLevel>
        <iidm:twoWindingsTransformer id="TR" r="0.0" x="0.003" g="0.0" b="0.0" ratedU1="1.0" ratedU2="1.0" voltageLevelId1="VL_GEN" bus1="GEN_BUS" connectableBus1="GEN_BUS" voltageLevelId2="VL_HV" bus2="HV_BUS" connectableBus2="HV_BUS" p1="59.99998951836542" q1="8.606816421886911" p2="-59.99998951836542" q2="-4.265989352978723"/>
    </iidm:substation>
    <iidm:substation id="S_INF">
        <iidm:voltageLevel id="VL_INF" nominalV="1.0" lowVoltageLimit="0.5" highVoltageLimit="1.5" topologyKind="BUS_BREAKER">
            <iidm:busBreakerTopology>
                <iidm:bus id="INF_BUS" v="0.9" angle="0.0"/>
            </iidm:busBreakerTopology>
        </iidm:voltageLevel>
    </iidm:substation>
    <iidm:line id="LINE" r="0.0006000000000000001" x="0.006" g1="0.0" b1="0.0" g2="0.0" b2="0.0" voltageLevelId1="VL_HV" bus1="HV_BUS" connectableBus1="HV_BUS" voltageLevelId2="VL_INF" bus2="INF_BUS" connectableBus2="INF_BUS" p1="59.999988660841076" q1="4.266035380963706" p2="-59.13182317752146" q2="4.415619452232935"/>
</iidm:network>
